gridcapa-core-valid-app/src/test/resources/rao-result-bis/network.uct
##C 2007.05.01
##N
##ZDE
DDE1AA1A DE A         0 0 400.00 0.00000 0.00000 0.00000 0.00000 -0.0000         -99999. -99999.                               F
DDE1AA1B DE B         0 0 400.00 0.00000 0.00000 0.00000 0.00000 -0.0000         -99999. -99999.                               F
##ZFR
FFR1AA1A FR A         0 0 400.00 0.00000 0.00000 0.00000 0.00000 -0.0000         -99999. -99999.                               F
FFR1AA1B FR B         0 0 400.00 0.00000 0.00000 0.00000 0.00000 -0.0000         -99999. -99999.                               F
##ZXX
XFRDE11A              0 0        0.00000 0.00000 0.00000 0.00000
XFRDE11B              0 0        0.00000 0.00000 0.00000 0.00000
##L
DDE1AA1A XFRDE11B 1 0 0.3650 5.1300 89.20000   2720 ELEMT 1
DDE1AA1B XFRDE11A 1 0 0.3650 5.1300 89.20000   2720 ELEMT 2
XFRDE11A FFR1AA1B 1 0 0.3700 5.1350 89.50001   2720 ELEMT 3
XFRDE11B FFR1AA1A 2 0 0.3650 5.1350 89.50001   2720 ELEMT 4
